%mem=1GB
#p am1 opt freq=noraman

isolated MeCl

0 1
 C                 -2.87096777    1.61290320    0.00000000
 H                 -2.51431335    0.60409320    0.00000000
 H                 -2.51429493    2.11730139    0.87365150
 H                 -3.94096777    1.61291639    0.00000000
 Cl                -2.28429095    2.44256751   -1.43703425


