%mem=1GB
#p am1 opt=modredundant

MeCl scan

-1 1
 C                  0.48973900   -0.00010000    0.00066200
 H                  0.13463400   -0.70422800    0.78409400
 H                  0.13418200    1.03022800    0.21894700
 H                  0.13355900   -0.32645500   -1.00049100
 Cl                 2.23123400    0.00003800   -0.00024100
 Cl                -2.42775300    0.00002400   -0.00014300

B 1 5 S 40 -0.05

