%mem=1GB
#p am1 opt freq=noraman

MeCl post

-1 1
 C                  0.38387700    0.00000900    0.00000000
 H                 -0.03976300   -0.60022700   -0.91842500
 H                 -0.03976200   -0.49525800    0.97902900
 H                 -0.03973300    1.09550600   -0.06060300
 Cl                 2.09011900   -0.00000300    0.00000000
 Cl                -2.21811900   -0.00000200    0.00000000


