%mem=1GB
#p am1 IRC=(forward,calcfc,maxpoints=300,stepsize=1,recalc=10)

MeCl ts

-1 1
 C                  0.01994200    0.00032300    0.00003600
 H                 -0.00221700    0.56204400    0.94266600
 H                 -0.00225400    0.53669900   -0.95725700
 H                 -0.00251500   -1.09682800    0.01464300
 Cl                 2.14092600   -0.00011800   -0.00000800
 Cl                -2.14755300   -0.00010800   -0.00000700


